/*--------------------------------*- C++ -*----------------------------------*\
| =========                 |                                                 |
| \\      /  F ield         | OpenFOAM: The Open Source CFD Toolbox           |
|  \\    /   O peration     | Version:  2506                                  |
|   \\  /    A nd           | Website:  www.openfoam.com                      |
|    \\/     M anipulation  |                                                 |
\*---------------------------------------------------------------------------*/
FoamFile
{
    version     2.0;
    format      ascii;
    arch        "LSB;label=32;scalar=64";
    class       extendedFeatureEdgeMesh;
    location    "constant/extendedFeatureEdgeMesh";
    object      room_final.extendedFeatureEdgeMesh;
}
// * * * * * * * * * * * * * * * * * * * * * * * * * * * * * * * * * * * * * //

// points

382
(
(3 -2.5 3)
(3 2.5 0)
(3 2.5 3)
(3 -2.5 0)
(-3 2.5 3)
(-3 -2.5 3)
(-3 2.5 0)
(-3 -2.5 0)
(2.65 -0.25 0.475)
(2.65 0.25 0.425)
(2.65 0.25 0.475)
(2.65 -0.25 0.425)
(2.15 0.25 0.475)
(2.15 -0.25 0.475)
(2.15 -0.25 0.425)
(2.15 0.25 0.425)
(2.595 0.25 1.25)
(2.645 0.25 1.25)
(2.645 -0.25 1.25)
(2.595 -0.25 1.25)
(2.8 0.850001 2.2)
(2.8 1.95 2.2)
(2.4 1.95 2.2)
(2.4 0.850001 2.2)
(2.8 -1.95 2.2)
(2.8 -0.850001 2.2)
(2.4 -0.850001 2.2)
(2.4 -1.95 2.2)
(-1.65 0.95 0.425)
(-1.65 1.45 0.475)
(-1.65 1.45 0.425)
(-1.65 0.95 0.475)
(-1.15 0.95 0.475)
(-1.15 1.45 0.475)
(-1.15 0.95 0.425)
(-1.15 1.45 0.425)
(-1.595 0.95 1.25)
(-1.645 0.95 1.25)
(-1.645 1.45 1.25)
(-1.595 1.45 1.25)
(-1.65 0.15 0.425)
(-1.65 0.65 0.475)
(-1.65 0.65 0.425)
(-1.65 0.15 0.475)
(-1.15 0.15 0.475)
(-1.15 0.65 0.475)
(-1.15 0.15 0.425)
(-1.15 0.65 0.425)
(-1.595 0.15 1.25)
(-1.645 0.15 1.25)
(-1.645 0.65 1.25)
(-1.595 0.65 1.25)
(-1.65 -0.65 0.425)
(-1.65 -0.15 0.475)
(-1.65 -0.15 0.425)
(-1.65 -0.65 0.475)
(-1.15 -0.65 0.475)
(-1.15 -0.15 0.475)
(-1.15 -0.65 0.425)
(-1.15 -0.15 0.425)
(-1.595 -0.65 1.25)
(-1.645 -0.65 1.25)
(-1.645 -0.15 1.25)
(-1.595 -0.15 1.25)
(-1.65 -1.45 0.425)
(-1.65 -0.95 0.475)
(-1.65 -0.95 0.425)
(-1.65 -1.45 0.475)
(-1.15 -1.45 0.475)
(-1.15 -0.95 0.475)
(-1.15 -1.45 0.425)
(-1.15 -0.95 0.425)
(-1.595 -1.45 1.25)
(-1.645 -1.45 1.25)
(-1.645 -0.95 1.25)
(-1.595 -0.95 1.25)
(2.1 -1 0.75)
(2.1 1 0.75)
(0.9 1 0.75)
(0.9 -1 0.75)
(0 -0.799999 0.5)
(0 0.799999 0.5)
(-0.799999 0.799999 0.5)
(-0.799999 -0.799999 0.5)
(-2.2 -1.1 2.8)
(-2.2 1.1 2.8)
(-2.8 1.1 2.8)
(-2.8 -1.1 2.8)
(2.9 2.4 2.9)
(2.9 -2.4 2.9)
(2.9 -2.4 0.0999994)
(-2.9 -2.4 2.9)
(-2.9 2.4 2.9)
(-2.9 2.4 0.0999994)
(-2.9 -2.4 0.0999994)
(2.75 0.9 1.25)
(2.75 1.9 1.45)
(2.75 1.9 1.25)
(2.75 0.9 1.45)
(2.75 0.9 1.55)
(2.75 1.9 1.75)
(2.75 1.9 1.55)
(2.75 0.9 1.75)
(2.75 0.9 1.85)
(2.75 1.9 2.05)
(2.75 1.9 1.85)
(2.75 0.9 2.05)
(2.75 -1.9 1.25)
(2.75 -0.9 1.45)
(2.75 -0.9 1.25)
(2.75 -1.9 1.45)
(2.75 -1.9 1.55)
(2.75 -0.9 1.75)
(2.75 -0.9 1.55)
(2.75 -1.9 1.75)
(2.75 -1.9 1.85)
(2.75 -0.9 2.05)
(2.75 -0.9 1.85)
(2.75 -1.9 2.05)
(-2.4 -1.9 3)
(-2.8 -1.9 3)
(-2.4 -2.3 3)
(-2.8 -2.3 3)
(2.9 2 0)
(2.5 2 0)
(2.9 2.4 0)
(2.5 2.4 0)
(-1 2.5 0.9)
(-1.75 2.5 2.1)
(-1 2.5 2.1)
(-1.75 2.5 0.0999994)
(1 2.5 2.1)
(1 2.5 0.9)
(-2.65 2.5 2.1)
(-2.65 2.5 0.0999994)
(2.9 2 0.0999994)
(-2.4 -1.9 2.9)
(-2.4 -2.3 2.9)
(-2.8 -2.3 2.9)
(-2.8 -1.9 2.9)
(-2.65 2.4 0.0999994)
(-1.75 2.4 0.0999994)
(-2.2 1.1 0.0999994)
(-2.8 1.1 0.0999994)
(-2.8 -1.1 0.0999994)
(-1.62 -1.02 0.0999994)
(-1.58 -1.38 0.0999994)
(-1.58 -1.02 0.0999994)
(-1.62 -1.38 0.0999994)
(-1.62 -0.619999 0.0999994)
(-1.58 -0.980001 0.0999994)
(-1.58 -0.619999 0.0999994)
(-1.62 -0.980001 0.0999994)
(-1.62 -0.220001 0.0999994)
(-1.58 -0.579999 0.0999994)
(-1.58 -0.220001 0.0999994)
(-1.62 -0.579999 0.0999994)
(-1.62 0.180001 0.0999994)
(-1.58 -0.180001 0.0999994)
(-1.58 0.180001 0.0999994)
(-1.62 -0.180001 0.0999994)
(-1.62 0.579999 0.0999994)
(-1.58 0.220001 0.0999994)
(-1.58 0.579999 0.0999994)
(-1.62 0.220001 0.0999994)
(-1.62 0.980001 0.0999994)
(-1.58 0.619999 0.0999994)
(-1.58 0.980001 0.0999994)
(-1.62 0.619999 0.0999994)
(-1.62 1.38 0.0999994)
(-1.58 1.02 0.0999994)
(-1.58 1.38 0.0999994)
(-1.62 1.02 0.0999994)
(-1.22 -1.02 0.0999994)
(-1.18 -1.38 0.0999994)
(-1.18 -1.02 0.0999994)
(-1.22 -1.38 0.0999994)
(-1.22 -0.619999 0.0999994)
(-1.18 -0.980001 0.0999994)
(-1.18 -0.619999 0.0999994)
(-1.22 -0.980001 0.0999994)
(-1.22 -0.220001 0.0999994)
(-1.18 -0.579999 0.0999994)
(-1.18 -0.220001 0.0999994)
(-1.22 -0.579999 0.0999994)
(-1.22 0.180001 0.0999994)
(-1.18 -0.180001 0.0999994)
(-1.18 0.180001 0.0999994)
(-1.22 -0.180001 0.0999994)
(-1.22 0.579999 0.0999994)
(-1.18 0.220001 0.0999994)
(-1.18 0.579999 0.0999994)
(-1.22 0.220001 0.0999994)
(-1.22 0.980001 0.0999994)
(-1.18 0.619999 0.0999994)
(-1.18 0.980001 0.0999994)
(-1.22 0.619999 0.0999994)
(-1.22 1.38 0.0999994)
(-1.18 1.02 0.0999994)
(-1.18 1.38 0.0999994)
(-1.22 1.02 0.0999994)
(2.18 0.179999 0.0999994)
(2.22 -0.179999 0.0999994)
(2.22 0.179999 0.0999994)
(2.18 -0.179999 0.0999994)
(2.5 2.4 0.0999994)
(2.4 1.95 0.0999994)
(2.5 2 0.0999994)
(2.1 1 0.0999994)
(2.4 0.850001 0.0999994)
(2.22 0.219999 0.0999994)
(2.4 -0.850001 0.0999994)
(2.18 0.219999 0.0999994)
(2.1 -1 0.0999994)
(0.9 1 0.0999994)
(0 0.799999 0.0999994)
(0.9 -1 0.0999994)
(-1.18 1.42 0.0999994)
(-0.799999 0.799999 0.0999994)
(-1.22 1.42 0.0999994)
(-1.58 1.42 0.0999994)
(-1.62 1.42 0.0999994)
(-2.2 -1.1 0.0999994)
(2.58 0.179999 0.0999994)
(2.62 -0.179999 0.0999994)
(2.62 0.179999 0.0999994)
(2.58 -0.179999 0.0999994)
(2.8 0.850001 0.0999994)
(2.62 0.219999 0.0999994)
(2.58 0.219999 0.0999994)
(2.8 1.95 0.0999994)
(2.8 -0.850001 0.0999994)
(2.8 -1.95 0.0999994)
(2.4 -1.95 0.0999994)
(2.22 -0.219999 0.0999994)
(2.18 -0.219999 0.0999994)
(-1.18 -1.42 0.0999994)
(0 -0.799999 0.0999994)
(-0.799999 -0.799999 0.0999994)
(-1.22 -1.42 0.0999994)
(-1.58 -1.42 0.0999994)
(-1.62 -1.42 0.0999994)
(2.62 -0.219999 0.0999994)
(2.58 -0.219999 0.0999994)
(-1.75 2.4 2.1)
(-1 2.4 0.9)
(-1 2.4 2.1)
(1 2.4 0.9)
(-2.65 2.4 2.1)
(1 2.4 2.1)
(2.22 -0.219999 0.425)
(2.22 -0.179999 0.425)
(2.18 -0.179999 0.425)
(2.18 -0.219999 0.425)
(2.22 0.179999 0.425)
(2.22 0.219999 0.425)
(2.18 0.219999 0.425)
(2.18 0.179999 0.425)
(2.62 -0.219999 0.425)
(2.62 -0.179999 0.425)
(2.58 -0.179999 0.425)
(2.58 -0.219999 0.425)
(2.62 0.179999 0.425)
(2.62 0.219999 0.425)
(2.58 0.219999 0.425)
(2.58 0.179999 0.425)
(2.595 -0.25 0.475)
(2.595 0.25 0.475)
(2.645 0.25 0.475)
(2.645 -0.25 0.475)
(2.4 0.9 1.45)
(2.4 1.9 1.45)
(2.4 1.9 1.25)
(2.4 0.9 1.25)
(2.4 0.9 1.75)
(2.4 1.9 1.75)
(2.4 1.9 1.55)
(2.4 0.9 1.55)
(2.4 0.9 2.05)
(2.4 1.9 2.05)
(2.4 1.9 1.85)
(2.4 0.9 1.85)
(2.8 1.95 1.1)
(2.8 0.850001 1.1)
(2.4 0.850001 1.1)
(2.4 1.95 1.1)
(2.4 -1.9 1.45)
(2.4 -0.9 1.45)
(2.4 -0.9 1.25)
(2.4 -1.9 1.25)
(2.4 -1.9 1.75)
(2.4 -0.9 1.75)
(2.4 -0.9 1.55)
(2.4 -1.9 1.55)
(2.4 -1.9 2.05)
(2.4 -0.9 2.05)
(2.4 -0.9 1.85)
(2.4 -1.9 1.85)
(2.8 -0.850001 1.1)
(2.8 -1.95 1.1)
(2.4 -1.95 1.1)
(2.4 -0.850001 1.1)
(-1.22 1.42 0.425)
(-1.22 1.38 0.425)
(-1.18 1.38 0.425)
(-1.18 1.42 0.425)
(-1.22 1.02 0.425)
(-1.22 0.980001 0.425)
(-1.18 0.980001 0.425)
(-1.18 1.02 0.425)
(-1.62 1.42 0.425)
(-1.62 1.38 0.425)
(-1.58 1.38 0.425)
(-1.58 1.42 0.425)
(-1.62 1.02 0.425)
(-1.62 0.980001 0.425)
(-1.58 0.980001 0.425)
(-1.58 1.02 0.425)
(-1.595 1.45 0.475)
(-1.595 0.95 0.475)
(-1.645 0.95 0.475)
(-1.645 1.45 0.475)
(-1.22 0.619999 0.425)
(-1.22 0.579999 0.425)
(-1.18 0.579999 0.425)
(-1.18 0.619999 0.425)
(-1.22 0.220001 0.425)
(-1.22 0.180001 0.425)
(-1.18 0.180001 0.425)
(-1.18 0.220001 0.425)
(-1.62 0.619999 0.425)
(-1.62 0.579999 0.425)
(-1.58 0.579999 0.425)
(-1.58 0.619999 0.425)
(-1.62 0.220001 0.425)
(-1.62 0.180001 0.425)
(-1.58 0.180001 0.425)
(-1.58 0.220001 0.425)
(-1.595 0.65 0.475)
(-1.595 0.15 0.475)
(-1.645 0.15 0.475)
(-1.645 0.65 0.475)
(-1.22 -0.180001 0.425)
(-1.22 -0.220001 0.425)
(-1.18 -0.220001 0.425)
(-1.18 -0.180001 0.425)
(-1.22 -0.579999 0.425)
(-1.22 -0.619999 0.425)
(-1.18 -0.619999 0.425)
(-1.18 -0.579999 0.425)
(-1.62 -0.180001 0.425)
(-1.62 -0.220001 0.425)
(-1.58 -0.220001 0.425)
(-1.58 -0.180001 0.425)
(-1.62 -0.579999 0.425)
(-1.62 -0.619999 0.425)
(-1.58 -0.619999 0.425)
(-1.58 -0.579999 0.425)
(-1.595 -0.15 0.475)
(-1.595 -0.65 0.475)
(-1.645 -0.65 0.475)
(-1.645 -0.15 0.475)
(-1.22 -0.980001 0.425)
(-1.22 -1.02 0.425)
(-1.18 -1.02 0.425)
(-1.18 -0.980001 0.425)
(-1.22 -1.38 0.425)
(-1.22 -1.42 0.425)
(-1.18 -1.42 0.425)
(-1.18 -1.38 0.425)
(-1.62 -0.980001 0.425)
(-1.62 -1.02 0.425)
(-1.58 -1.02 0.425)
(-1.58 -0.980001 0.425)
(-1.62 -1.38 0.425)
(-1.62 -1.42 0.425)
(-1.58 -1.42 0.425)
(-1.58 -1.38 0.425)
(-1.595 -0.95 0.475)
(-1.595 -1.45 0.475)
(-1.645 -1.45 0.475)
(-1.645 -0.95 0.475)
)

// edges

577
(
(2 0)
(1 2)
(3 1)
(0 3)
(2 4)
(4 5)
(120 119)
(119 121)
(121 122)
(5 0)
(122 120)
(124 123)
(7 6)
(3 7)
(123 125)
(125 126)
(6 1)
(126 124)
(4 6)
(7 5)
(129 127)
(130 128)
(132 131)
(127 132)
(131 129)
(128 133)
(133 134)
(134 130)
(137 136)
(139 138)
(138 137)
(136 139)
(207 205)
(135 207)
(245 246)
(247 245)
(244 141)
(248 244)
(140 248)
(246 249)
(249 247)
(202 251)
(250 234)
(252 204)
(235 253)
(210 255)
(254 203)
(256 212)
(201 257)
(224 259)
(258 242)
(260 226)
(243 261)
(228 263)
(262 225)
(264 229)
(223 265)
(10 8)
(9 10)
(11 9)
(8 11)
(267 12)
(12 13)
(13 266)
(10 268)
(269 8)
(11 14)
(14 15)
(15 9)
(12 15)
(14 13)
(17 268)
(16 17)
(267 16)
(18 19)
(19 266)
(269 18)
(17 18)
(16 19)
(270 271)
(272 273)
(271 272)
(273 270)
(274 275)
(276 277)
(275 276)
(277 274)
(278 279)
(280 281)
(279 280)
(281 278)
(21 20)
(282 21)
(20 283)
(21 22)
(22 23)
(23 20)
(284 23)
(22 285)
(230 282)
(283 227)
(285 206)
(209 284)
(286 287)
(288 289)
(287 288)
(289 286)
(290 291)
(292 293)
(291 292)
(293 290)
(294 295)
(296 297)
(295 296)
(297 294)
(25 24)
(298 25)
(24 299)
(25 26)
(26 27)
(27 24)
(300 27)
(26 301)
(231 298)
(299 232)
(301 211)
(233 300)
(302 219)
(197 303)
(217 305)
(304 199)
(306 200)
(193 307)
(198 309)
(308 195)
(310 221)
(169 311)
(220 313)
(312 171)
(314 172)
(165 315)
(170 317)
(316 167)
(30 28)
(29 30)
(31 29)
(28 31)
(32 33)
(33 318)
(319 32)
(321 29)
(31 320)
(34 28)
(35 34)
(30 35)
(35 33)
(32 34)
(37 320)
(36 37)
(319 36)
(38 39)
(39 318)
(321 38)
(37 38)
(36 39)
(322 196)
(189 323)
(194 325)
(324 191)
(326 192)
(185 327)
(190 329)
(328 187)
(330 168)
(161 331)
(166 333)
(332 163)
(334 164)
(157 335)
(162 337)
(336 159)
(42 40)
(41 42)
(43 41)
(40 43)
(44 45)
(45 338)
(339 44)
(341 41)
(43 340)
(46 40)
(47 46)
(42 47)
(47 45)
(44 46)
(49 340)
(48 49)
(339 48)
(50 51)
(51 338)
(341 50)
(49 50)
(48 51)
(342 188)
(181 343)
(186 345)
(344 183)
(346 184)
(177 347)
(182 349)
(348 179)
(350 160)
(153 351)
(158 353)
(352 155)
(354 156)
(149 355)
(154 357)
(356 151)
(54 52)
(53 54)
(55 53)
(52 55)
(56 57)
(57 358)
(359 56)
(361 53)
(55 360)
(58 52)
(59 58)
(54 59)
(59 57)
(56 58)
(61 360)
(60 61)
(359 60)
(62 63)
(63 358)
(361 62)
(61 62)
(60 63)
(362 180)
(173 363)
(178 365)
(364 175)
(366 176)
(239 367)
(174 369)
(368 236)
(370 152)
(145 371)
(150 373)
(372 147)
(374 148)
(241 375)
(146 377)
(376 240)
(66 64)
(65 66)
(67 65)
(64 67)
(68 69)
(69 378)
(379 68)
(381 65)
(67 380)
(70 64)
(71 70)
(66 71)
(71 69)
(68 70)
(73 380)
(72 73)
(379 72)
(74 75)
(75 378)
(381 74)
(73 74)
(72 75)
(77 76)
(208 77)
(76 213)
(77 78)
(78 79)
(79 76)
(78 214)
(216 79)
(81 80)
(215 81)
(80 237)
(81 82)
(82 83)
(83 80)
(82 218)
(238 83)
(85 84)
(142 85)
(84 222)
(85 86)
(86 87)
(87 84)
(86 143)
(144 87)
(123 135)
(88 125)
(135 90)
(90 89)
(89 88)
(89 91)
(92 88)
(91 92)
(141 130)
(134 140)
(143 142)
(144 143)
(140 93)
(147 145)
(148 146)
(151 149)
(152 150)
(155 153)
(156 154)
(159 157)
(160 158)
(163 161)
(164 162)
(167 165)
(168 166)
(171 169)
(172 170)
(175 173)
(176 174)
(179 177)
(180 178)
(183 181)
(184 182)
(187 185)
(188 186)
(191 189)
(192 190)
(195 193)
(196 194)
(199 197)
(200 198)
(203 201)
(204 202)
(209 206)
(210 203)
(201 212)
(208 213)
(212 210)
(214 208)
(216 214)
(205 141)
(217 199)
(218 215)
(197 219)
(193 200)
(170 167)
(189 196)
(162 159)
(181 188)
(177 184)
(220 171)
(219 217)
(169 221)
(165 172)
(161 168)
(157 164)
(142 222)
(153 160)
(149 156)
(145 152)
(221 220)
(225 223)
(226 224)
(228 225)
(229 228)
(223 229)
(227 209)
(230 227)
(206 230)
(231 232)
(232 233)
(202 234)
(234 235)
(235 204)
(233 211)
(213 216)
(215 237)
(237 238)
(198 195)
(194 191)
(190 187)
(238 218)
(186 183)
(182 179)
(178 175)
(174 236)
(236 239)
(166 163)
(185 192)
(158 155)
(154 151)
(173 180)
(150 147)
(239 176)
(146 240)
(240 241)
(241 148)
(222 144)
(94 90)
(93 94)
(224 242)
(242 243)
(211 231)
(243 226)
(93 92)
(91 94)
(205 126)
(132 247)
(249 131)
(246 129)
(127 245)
(244 128)
(248 133)
(119 136)
(137 121)
(139 120)
(122 138)
(207 124)
(251 250)
(253 252)
(252 251)
(250 253)
(255 254)
(257 256)
(256 255)
(254 257)
(259 258)
(261 260)
(260 259)
(258 261)
(263 262)
(265 264)
(264 263)
(262 265)
(266 267)
(268 269)
(97 95)
(96 97)
(98 96)
(95 98)
(98 270)
(271 96)
(97 272)
(273 95)
(101 99)
(100 101)
(102 100)
(99 102)
(102 274)
(275 100)
(101 276)
(277 99)
(105 103)
(104 105)
(106 104)
(103 106)
(106 278)
(279 104)
(105 280)
(281 103)
(109 107)
(108 109)
(110 108)
(107 110)
(110 286)
(287 108)
(109 288)
(289 107)
(113 111)
(112 113)
(114 112)
(111 114)
(114 290)
(291 112)
(113 292)
(293 111)
(117 115)
(116 117)
(118 116)
(115 118)
(118 294)
(295 116)
(117 296)
(297 115)
(303 302)
(305 304)
(304 303)
(302 305)
(307 306)
(309 308)
(308 307)
(306 309)
(311 310)
(313 312)
(312 311)
(310 313)
(315 314)
(317 316)
(316 315)
(314 317)
(318 319)
(320 321)
(323 322)
(325 324)
(324 323)
(322 325)
(327 326)
(329 328)
(328 327)
(326 329)
(331 330)
(333 332)
(332 331)
(330 333)
(335 334)
(337 336)
(336 335)
(334 337)
(338 339)
(340 341)
(343 342)
(345 344)
(344 343)
(342 345)
(347 346)
(349 348)
(348 347)
(346 349)
(351 350)
(353 352)
(352 351)
(350 353)
(355 354)
(357 356)
(356 355)
(354 357)
(358 359)
(360 361)
(363 362)
(365 364)
(364 363)
(362 365)
(367 366)
(369 368)
(368 367)
(366 369)
(371 370)
(373 372)
(372 371)
(370 373)
(375 374)
(377 376)
(376 375)
(374 377)
(378 379)
(380 381)
(283 282)
(283 284)
(284 285)
(285 282)
(299 298)
(299 300)
(300 301)
(301 298)
)

// concaveStart mixedStart nonFeatureStart
88 119 382
// internalStart flatStart openStart multipleStart
303 569 569 569
// normals

739
(
(1 0 0)
(1 -0 0)
(0 0 -1)
(-0 0 1)
(0 0 1)
(0 -1 0)
(0 -1 -0)
(-0 0 -1)
(-1 -0 0)
(-1 0 0)
(0 1 -0)
(0 1 0)
(1 0 0)
(1 -0 0)
(0 0 -1)
(-0 0 1)
(0 0 1)
(0 -1 0)
(0 -1 -0)
(-0 0 -1)
(-1 -0 0)
(-1 0 0)
(0 1 -0)
(0 1 0)
(1 -0 0)
(0 0 1)
(0 1 -0)
(1 0 0)
(0 0 -1)
(0 -1 -0)
(-0 0 1)
(0 1 0)
(0 0 1)
(-1 -0 0)
(0 0 1)
(0 -1 0)
(-0 0 1)
(-1 -0 0)
(0 0 1)
(0 1 -0)
(0 0 1)
(0 -1 0)
(0 0 1)
(1 -0 0)
(0 0 -1)
(0 1 0)
(0 0 -1)
(-1 0 0)
(0 0 -1)
(0 0 -1)
(-1 0 0)
(0 0 -1)
(0 -1 0)
(0 0 -1)
(0 1 0)
(0 0 -1)
(1 0 0)
(0 1 0)
(0 1 -0)
(1 -0 0)
(0 1 0)
(-1 0 0)
(0 1 0)
(-1 0 0)
(0 1 0)
(-0 0 1)
(0 1 -0)
(-0 0 -1)
(0 1 -0)
(-0 0 -1)
(0 1 0)
(1 -0 0)
(0 1 0)
(0 0 1)
(0 0 -1)
(-1 0 0)
(-0 0 -1)
(1 0 0)
(-0 0 -1)
(0 1 0)
(0 0 -1)
(0 -1 -0)
(0 0 1)
(1 -0 0)
(-0 0 1)
(0 1 -0)
(0 -1 0)
(1 0 0)
(0 -1 -0)
(0 0 1)
(0 -1 0)
(-1 -0 0)
(0 -1 0)
(0 0 -1)
(0 -1 -0)
(1 0 0)
(0 -1 0)
(0 0 -1)
(0 -1 0)
(-1 -0 0)
(1 -0 0)
(0 1 -0)
(1 0 0)
(0 -1 -0)
(-1 0 0)
(0 1 0)
(-1 -0 0)
(0 -1 0)
(1 -0 0)
(0 1 -0)
(1 0 0)
(0 -1 -0)
(-1 0 0)
(0 1 0)
(-1 -0 0)
(0 -1 0)
(1 -0 0)
(0 1 -0)
(1 0 0)
(0 -1 -0)
(-1 0 0)
(0 1 0)
(-1 -0 0)
(0 -1 0)
(1 -0 0)
(0 1 -0)
(1 0 0)
(0 -1 -0)
(-1 0 0)
(0 1 0)
(-1 -0 0)
(0 -1 0)
(1 -0 0)
(-0 0 1)
(0 1 -0)
(1 0 0)
(0 0 -1)
(0 -1 0)
(-0 0 1)
(0 1 0)
(0 0 1)
(-1 -0 0)
(0 -1 0)
(0 0 1)
(0 0 -1)
(0 -1 0)
(0 0 -1)
(-1 0 0)
(0 0 -1)
(0 1 0)
(0 1 -0)
(1 -0 0)
(-0 0 1)
(0 1 0)
(-1 0 0)
(0 -1 0)
(0 0 1)
(-1 -0 0)
(0 -1 -0)
(1 0 0)
(-0 0 -1)
(-1 0 0)
(0 0 1)
(-1 0 0)
(0 -1 0)
(-1 0 0)
(0 1 0)
(-1 0 0)
(-0 0 -1)
(-1 0 0)
(0 0 1)
(-1 -0 0)
(0 -1 0)
(-1 0 0)
(0 1 0)
(-1 -0 0)
(-0 0 -1)
(-1 0 0)
(0 0 1)
(-1 -0 0)
(0 -1 0)
(-1 0 0)
(0 1 0)
(-1 0 0)
(1 -0 0)
(-0 0 1)
(0 1 -0)
(0 0 1)
(-1 0 0)
(0 -1 0)
(-1 0 0)
(-1 0 0)
(1 0 0)
(0 -1 -0)
(-1 0 0)
(0 1 0)
(-0 0 -1)
(-1 0 0)
(0 0 1)
(-1 0 0)
(0 -1 0)
(-1 0 0)
(0 1 0)
(-1 0 0)
(-0 0 -1)
(-1 0 0)
(0 0 1)
(-1 -0 0)
(0 -1 0)
(-1 0 0)
(0 1 0)
(-1 -0 0)
(-0 0 -1)
(-1 0 0)
(0 0 1)
(-1 -0 0)
(0 -1 0)
(-1 0 0)
(0 1 0)
(-1 0 0)
(1 -0 0)
(-0 0 1)
(0 1 -0)
(0 0 1)
(-1 0 0)
(0 -1 0)
(-1 0 0)
(-1 0 0)
(1 0 0)
(0 -1 -0)
(-1 0 0)
(0 1 0)
(-1 0 0)
(0 1 0)
(-1 -0 0)
(0 -1 0)
(1 -0 0)
(0 1 -0)
(1 0 0)
(0 -1 -0)
(-1 0 0)
(0 1 0)
(-1 -0 0)
(0 -1 0)
(1 -0 0)
(0 1 -0)
(1 0 0)
(0 -1 -0)
(-1 0 0)
(0 1 0)
(-1 -0 0)
(0 -1 0)
(1 -0 0)
(0 1 -0)
(1 0 0)
(0 -1 -0)
(-1 0 0)
(0 1 0)
(-1 -0 0)
(0 -1 0)
(1 -0 0)
(0 1 -0)
(1 0 0)
(0 -1 -0)
(-1 0 0)
(0 0 -1)
(0 1 0)
(-1 -0 0)
(0 0 1)
(0 -1 0)
(-0 0 1)
(1 -0 0)
(0 1 -0)
(0 0 1)
(0 -1 0)
(-0 0 1)
(0 0 -1)
(0 -1 0)
(0 0 -1)
(1 0 0)
(0 0 -1)
(0 1 0)
(0 -1 0)
(-1 -0 0)
(0 0 1)
(0 -1 -0)
(1 0 0)
(0 1 -0)
(-0 0 1)
(1 -0 0)
(0 1 0)
(-1 0 0)
(-1 0 0)
(0 1 0)
(-1 -0 0)
(0 -1 0)
(1 -0 0)
(0 1 -0)
(1 0 0)
(0 -1 -0)
(-1 0 0)
(0 1 0)
(-1 -0 0)
(0 -1 0)
(1 -0 0)
(0 1 -0)
(1 0 0)
(0 -1 -0)
(-1 0 0)
(0 1 0)
(-1 -0 0)
(0 -1 0)
(1 -0 0)
(0 1 -0)
(1 0 0)
(0 -1 -0)
(-1 0 0)
(0 1 0)
(-1 -0 0)
(0 -1 0)
(1 -0 0)
(0 1 -0)
(1 0 0)
(0 -1 -0)
(-1 0 0)
(0 0 -1)
(0 1 0)
(-1 -0 0)
(0 0 1)
(0 -1 0)
(-0 0 1)
(1 -0 0)
(0 1 -0)
(0 0 1)
(0 -1 0)
(-0 0 1)
(0 0 -1)
(0 -1 0)
(0 0 -1)
(1 0 0)
(0 0 -1)
(0 1 0)
(0 -1 0)
(-1 -0 0)
(0 0 1)
(0 -1 -0)
(1 0 0)
(0 1 -0)
(-0 0 1)
(1 -0 0)
(0 1 0)
(-1 0 0)
(-1 0 0)
(0 1 0)
(-1 -0 0)
(0 -1 0)
(1 -0 0)
(0 1 -0)
(1 0 0)
(0 -1 -0)
(-1 0 0)
(0 1 0)
(-1 -0 0)
(0 -1 0)
(1 -0 0)
(0 1 -0)
(1 0 0)
(0 -1 -0)
(-1 0 0)
(0 1 0)
(-1 -0 0)
(0 -1 0)
(1 -0 0)
(0 1 -0)
(1 0 0)
(0 -1 -0)
(-1 0 0)
(0 1 0)
(-1 -0 0)
(0 -1 0)
(1 -0 0)
(0 1 -0)
(1 0 0)
(0 -1 -0)
(-1 0 0)
(0 0 -1)
(0 1 0)
(-1 -0 0)
(0 0 1)
(0 -1 0)
(-0 0 1)
(1 -0 0)
(0 1 -0)
(0 0 1)
(0 -1 0)
(-0 0 1)
(0 0 -1)
(0 -1 0)
(0 0 -1)
(1 0 0)
(0 0 -1)
(0 1 0)
(0 -1 0)
(-1 -0 0)
(0 0 1)
(0 -1 -0)
(1 0 0)
(0 1 -0)
(-0 0 1)
(1 -0 0)
(0 1 0)
(-1 0 0)
(-1 0 0)
(0 1 0)
(-1 -0 0)
(0 -1 0)
(1 -0 0)
(0 1 -0)
(1 0 0)
(0 -1 -0)
(-1 0 0)
(0 1 0)
(-1 -0 0)
(0 -1 0)
(1 -0 0)
(0 1 -0)
(1 0 0)
(0 -1 -0)
(-1 0 0)
(0 1 0)
(-1 -0 0)
(0 -1 0)
(1 -0 0)
(0 1 -0)
(1 0 0)
(0 -1 -0)
(-1 0 0)
(0 1 0)
(-1 -0 0)
(0 -1 0)
(1 -0 0)
(0 1 -0)
(1 0 0)
(0 -1 -0)
(-1 0 0)
(0 0 -1)
(0 1 0)
(-1 -0 0)
(0 0 1)
(0 -1 0)
(-0 0 1)
(1 -0 0)
(0 1 -0)
(0 0 1)
(0 -1 0)
(-0 0 1)
(0 0 -1)
(0 -1 0)
(0 0 -1)
(1 0 0)
(0 0 -1)
(0 1 0)
(0 -1 0)
(-1 -0 0)
(0 0 1)
(0 -1 -0)
(1 0 0)
(0 1 -0)
(-0 0 1)
(1 -0 0)
(0 1 0)
(-1 0 0)
(1 -0 0)
(-0 0 1)
(0 1 -0)
(1 0 0)
(0 -1 -0)
(0 0 1)
(-1 -0 0)
(0 -1 0)
(-1 0 0)
(0 1 0)
(1 -0 0)
(-0 0 1)
(0 1 -0)
(1 0 0)
(0 -1 -0)
(0 0 1)
(-1 -0 0)
(0 -1 0)
(-1 0 0)
(0 1 0)
(1 -0 0)
(-0 0 1)
(0 1 -0)
(1 0 0)
(0 -1 -0)
(0 0 1)
(-1 -0 0)
(0 -1 0)
(-1 0 0)
(0 1 0)
(-1 0 0)
(0 -1 0)
(-1 0 0)
(0 0 1)
(0 1 -0)
(-1 0 0)
(0 0 -1)
(0 0 -1)
(0 0 -1)
(0 -1 0)
(0 0 -1)
(1 -0 0)
(0 0 1)
(0 0 1)
(0 0 1)
(-0 0 1)
(-0 0 1)
(0 0 1)
(-0 0 1)
(0 0 1)
(-0 0 1)
(0 0 1)
(-0 0 1)
(0 0 1)
(-0 0 1)
(0 0 1)
(-0 0 1)
(0 0 1)
(-0 0 1)
(0 0 1)
(-0 0 1)
(0 0 1)
(-0 0 1)
(0 0 1)
(-0 0 1)
(0 0 1)
(-0 0 1)
(0 0 1)
(-0 0 1)
(0 0 1)
(-0 0 1)
(0 0 1)
(-0 0 1)
(0 0 1)
(-0 0 1)
(0 0 1)
(-0 0 1)
(0 0 1)
(0 0 1)
(0 0 1)
(0 0 1)
(0 0 1)
(0 0 1)
(-0 0 1)
(0 -1 0)
(-0 0 1)
(0 0 1)
(0 0 1)
(0 0 1)
(0 0 1)
(0 0 1)
(0 0 1)
(0 0 1)
(0 0 1)
(0 0 1)
(0 0 1)
(0 0 1)
(0 0 1)
(0 0 1)
(0 0 1)
(0 0 1)
(0 0 1)
(0 0 1)
(0 0 1)
(0 0 1)
(-0 0 1)
(0 0 1)
(0 0 1)
(0 0 1)
(0 0 1)
(-0 0 1)
(0 0 1)
(0 0 1)
(-0 0 1)
(-0 0 1)
(-0 0 1)
(-0 0 1)
(0 0 1)
(0 0 1)
(-0 0 1)
(-0 0 1)
(0 0 1)
(-0 0 1)
(0 0 1)
(0 0 1)
(0 0 1)
(-0 0 1)
(-0 0 1)
(0 0 1)
(0 0 1)
(0 0 1)
(0 0 1)
(0 0 1)
(0 0 1)
(0 0 1)
(0 0 1)
(0 0 1)
(0 0 1)
(0 0 1)
(0 0 1)
(0 0 1)
(0 0 1)
(0 0 1)
(0 1 0)
(0 0 1)
(1 0 0)
(-0 0 1)
(-0 0 1)
(0 0 1)
(0 0 1)
(0 -1 0)
(0 0 -1)
(0 0 -1)
(0 0 -1)
(-0 0 -1)
(0 0 -1)
(0 0 -1)
(0 0 -1)
(-0 0 -1)
(0 0 -1)
(0 0 -1)
(0 0 -1)
(0 0 -1)
(0 0 -1)
(0 0 -1)
(0 0 -1)
(-0 0 -1)
(-1 0 0)
(-0 0 1)
(0 -1 -0)
(-1 -0 0)
(0 0 -1)
(0 1 -0)
(-1 0 0)
(-0 0 1)
(0 -1 -0)
(-1 -0 0)
(0 0 -1)
(0 1 -0)
(-1 0 0)
(-0 0 1)
(0 -1 -0)
(-1 -0 0)
(0 0 -1)
(0 1 -0)
(-1 0 0)
(-0 0 1)
(0 -1 -0)
(-1 -0 0)
(0 0 -1)
(0 1 -0)
(-1 0 0)
(-0 0 1)
(0 -1 -0)
(-1 -0 0)
(0 0 -1)
(0 1 -0)
(-1 0 0)
(-0 0 1)
(0 -1 -0)
(-1 -0 0)
(0 0 -1)
(0 1 -0)
(0 0 -1)
(0 0 -1)
(-0 0 -1)
(0 0 -1)
(0 0 -1)
(0 0 -1)
(0 0 -1)
(0 0 -1)
(0 0 -1)
(0 0 -1)
(-0 0 -1)
(0 0 -1)
(0 0 -1)
(0 0 -1)
(-0 0 -1)
(0 0 -1)
(0 0 -1)
(0 0 -1)
(-0 0 -1)
(0 0 -1)
(0 0 -1)
(0 0 -1)
(0 0 -1)
(0 0 -1)
(0 0 -1)
(0 0 -1)
(-0 0 -1)
(0 0 -1)
(0 0 -1)
(0 0 -1)
(-0 0 -1)
(0 0 -1)
(0 0 -1)
(0 0 -1)
(-0 0 -1)
(0 0 -1)
(0 0 -1)
(0 0 -1)
(0 0 -1)
(0 0 -1)
(0 0 -1)
(0 0 -1)
(-0 0 -1)
(0 0 -1)
(0 0 -1)
(0 0 -1)
(-0 0 -1)
(0 0 -1)
(0 0 -1)
(0 0 -1)
(-0 0 -1)
(0 0 -1)
(0 0 -1)
(0 0 -1)
(0 0 -1)
(0 0 -1)
(0 0 -1)
(0 0 -1)
(-0 0 -1)
(0 0 -1)
(0 0 -1)
(0 0 -1)
(-0 0 -1)
(0 0 -1)
)

// normal volume types

739
(
0
0
0
0
0
0
0
0
0
0
0
0
0
0
0
0
0
0
0
0
0
0
0
0
0
0
0
0
0
0
0
0
0
0
0
0
0
0
0
0
0
0
0
0
0
0
0
0
0
0
0
0
0
0
0
0
0
0
0
0
0
0
0
0
0
0
0
0
0
0
0
0
0
0
0
0
0
0
0
0
0
0
0
0
0
0
0
0
0
0
0
0
0
0
0
0
0
0
0
0
0
0
0
0
0
0
0
0
0
0
0
0
0
0
0
0
0
0
0
0
0
0
0
0
0
0
0
0
0
0
0
0
0
0
0
0
0
0
0
0
0
0
0
0
0
0
0
0
0
0
0
0
0
0
0
0
0
0
0
0
0
0
0
0
0
0
0
0
0
0
0
0
0
0
0
0
0
0
0
0
0
0
0
0
0
0
0
0
0
0
0
0
0
0
0
0
0
0
0
0
0
0
0
0
0
0
0
0
0
0
0
0
0
0
0
0
0
0
0
0
0
0
0
0
0
0
0
0
0
0
0
0
0
0
0
0
0
0
0
0
0
0
0
0
0
0
0
0
0
0
0
0
0
0
0
0
0
0
0
0
0
0
0
0
0
0
0
0
0
0
0
0
0
0
0
0
0
0
0
0
0
0
0
0
0
0
0
0
0
0
0
0
0
0
0
0
0
0
0
0
0
0
0
0
0
0
0
0
0
0
0
0
0
0
0
0
0
0
0
0
0
0
0
0
0
0
0
0
0
0
0
0
0
0
0
0
0
0
0
0
0
0
0
0
0
0
0
0
0
0
0
0
0
0
0
0
0
0
0
0
0
0
0
0
0
0
0
0
0
0
0
0
0
0
0
0
0
0
0
0
0
0
0
0
0
0
0
0
0
0
0
0
0
0
0
0
0
0
0
0
0
0
0
0
0
0
0
0
0
0
0
0
0
0
0
0
0
0
0
0
0
0
0
0
0
0
0
0
0
0
0
0
0
0
0
0
0
0
0
0
0
0
0
0
0
0
0
0
0
0
0
0
0
0
0
0
0
0
0
0
0
0
0
0
0
0
0
0
0
0
0
0
0
0
0
0
0
0
0
0
0
0
0
0
0
0
0
0
0
0
0
0
0
0
0
0
0
0
0
0
0
0
0
0
0
0
0
0
0
0
0
0
0
0
0
0
0
0
0
0
0
0
0
0
0
0
0
0
0
0
0
0
0
0
0
0
0
0
0
0
0
0
0
0
0
0
0
0
0
0
0
0
0
0
0
0
0
0
0
0
0
0
0
0
0
0
0
0
0
0
0
0
0
0
0
0
0
0
0
0
0
0
0
0
0
0
0
0
0
0
0
0
0
0
0
0
0
0
0
0
0
0
0
0
0
0
0
0
0
0
0
0
0
0
0
0
0
0
0
0
0
0
0
0
0
0
0
0
0
0
0
0
0
0
0
0
0
0
0
0
0
0
0
0
0
0
0
0
0
0
0
0
0
0
0
0
0
0
0
0
0
0
0
0
0
0
0
0
0
0
0
0
0
0
0
0
0
0
0
0
0
0
0
0
0
0
0
0
0
0
0
0
0
0
0
0
0
0
0
0
0
0
0
0
0
0
0
0
0
0
0
0
0
0
0
0
0
0
0
0
0
0
0
0
0
0
0
0
0
0
0
0
0
0
0
0
0
0
0
)

// normalDirections

577
(
2(1 -1)
2(1 -1)
2(1 -1)
2(1 -1)
2(1 -1)
2(1 -1)
2(1 -1)
2(1 -1)
2(1 -1)
2(1 -1)
2(1 -1)
2(1 -1)
2(1 -1)
2(1 -1)
2(1 -1)
2(1 -1)
2(1 -1)
2(1 -1)
2(1 -1)
2(1 -1)
2(1 -1)
2(1 -1)
2(1 -1)
2(1 -1)
2(1 -1)
2(1 -1)
2(1 -1)
2(1 -1)
2(1 -1)
2(1 -1)
2(1 -1)
2(1 -1)
2(1 -1)
2(1 -1)
2(1 -1)
2(1 -1)
2(1 -1)
2(1 -1)
2(1 -1)
2(1 -1)
2(1 -1)
2(1 -1)
2(1 -1)
2(1 -1)
2(1 -1)
2(1 -1)
2(1 -1)
2(1 -1)
2(1 -1)
2(1 -1)
2(1 -1)
2(1 -1)
2(1 -1)
2(1 -1)
2(1 -1)
2(1 -1)
2(1 -1)
2(1 -1)
2(1 -1)
2(1 -1)
2(1 -1)
2(1 -1)
2(1 -1)
2(1 -1)
2(1 -1)
2(1 -1)
2(1 -1)
2(1 -1)
2(1 -1)
2(1 -1)
2(1 -1)
2(1 -1)
2(1 -1)
2(1 -1)
2(1 -1)
2(1 -1)
2(1 -1)
2(1 -1)
2(1 -1)
2(1 -1)
2(1 -1)
2(1 -1)
2(1 -1)
2(1 -1)
2(1 -1)
2(1 -1)
2(1 -1)
2(1 -1)
2(1 -1)
2(1 -1)
2(1 -1)
2(1 -1)
2(1 -1)
2(1 -1)
2(1 -1)
2(1 -1)
2(1 -1)
2(1 -1)
2(1 -1)
2(1 -1)
2(1 -1)
2(1 -1)
2(1 -1)
2(1 -1)
2(1 -1)
2(1 -1)
2(1 -1)
2(1 -1)
2(1 -1)
2(1 -1)
2(1 -1)
2(1 -1)
2(1 -1)
2(1 -1)
2(1 -1)
2(1 -1)
2(1 -1)
2(1 -1)
2(1 -1)
2(1 -1)
2(1 -1)
2(1 -1)
2(1 -1)
2(1 -1)
2(1 -1)
2(1 -1)
2(1 -1)
2(1 -1)
2(1 -1)
2(1 -1)
2(1 -1)
2(1 -1)
2(1 -1)
2(1 -1)
2(1 -1)
2(1 -1)
2(1 -1)
2(1 -1)
2(1 -1)
2(1 -1)
2(1 -1)
2(1 -1)
2(1 -1)
2(1 -1)
2(1 -1)
2(1 -1)
2(1 -1)
2(1 -1)
2(1 -1)
2(1 -1)
2(1 -1)
2(1 -1)
2(1 -1)
2(1 -1)
2(1 -1)
2(1 -1)
2(1 -1)
2(1 -1)
2(1 -1)
2(1 -1)
2(1 -1)
2(1 -1)
2(1 -1)
2(1 -1)
2(1 -1)
2(1 -1)
2(1 -1)
2(1 -1)
2(1 -1)
2(1 -1)
2(1 -1)
2(1 -1)
2(1 -1)
2(1 -1)
2(1 -1)
2(1 -1)
2(1 -1)
2(1 -1)
2(1 -1)
2(1 -1)
2(1 -1)
2(1 -1)
2(1 -1)
2(1 -1)
2(1 -1)
2(1 -1)
2(1 -1)
2(1 -1)
2(1 -1)
2(1 -1)
2(1 -1)
2(1 -1)
2(1 -1)
2(1 -1)
2(1 -1)
2(1 -1)
2(1 -1)
2(1 -1)
2(1 -1)
2(1 -1)
2(1 -1)
2(1 -1)
2(1 -1)
2(1 -1)
2(1 -1)
2(1 -1)
2(1 -1)
2(1 -1)
2(1 -1)
2(1 -1)
2(1 -1)
2(1 -1)
2(1 -1)
2(1 -1)
2(1 -1)
2(1 -1)
2(1 -1)
2(1 -1)
2(1 -1)
2(1 -1)
2(1 -1)
2(1 -1)
2(1 -1)
2(1 -1)
2(1 -1)
2(1 -1)
2(1 -1)
2(1 -1)
2(1 -1)
2(1 -1)
2(1 -1)
2(1 -1)
2(1 -1)
2(1 -1)
2(1 -1)
2(1 -1)
2(1 -1)
2(1 -1)
2(1 -1)
2(1 -1)
2(1 -1)
2(1 -1)
2(1 -1)
2(1 -1)
2(1 -1)
2(1 -1)
2(1 -1)
2(1 -1)
2(1 -1)
2(1 -1)
2(1 -1)
2(1 -1)
2(1 -1)
2(1 -1)
2(1 -1)
2(1 -1)
2(1 -1)
2(1 -1)
2(1 -1)
2(1 -1)
2(1 -1)
2(1 -1)
2(1 -1)
2(1 -1)
2(1 -1)
2(1 -1)
2(1 -1)
2(1 -1)
2(1 -1)
2(1 -1)
2(1 -1)
2(1 -1)
2(1 -1)
2(1 -1)
2(1 -1)
2(1 -1)
2(1 -1)
2(1 -1)
2(1 -1)
2(1 -1)
2(1 -1)
2(1 -1)
2(1 -1)
2(1 -1)
2(1 -1)
2(1 -1)
2(1 -1)
2(1 -1)
2(1 -1)
2(1 -1)
2(1 -1)
2(1 -1)
2(1 -1)
2(1 -1)
2(1 -1)
2(1 -1)
2(1 -1)
2(1 -1)
2(1 -1)
2(1 -1)
2(1 -1)
2(1 -1)
2(1 -1)
2(1 -1)
2(1 -1)
2(1 -1)
2(1 -1)
2(1 -1)
2(1 -1)
2(1 -1)
2(1 -1)
2(1 -1)
2(1 -1)
2(1 -1)
2(1 -1)
2(1 -1)
2(1 -1)
2(1 -1)
2(1 -1)
2(1 -1)
2(1 -1)
2(1 -1)
2(1 -1)
2(1 -1)
2(1 -1)
2(1 -1)
2(1 -1)
2(1 -1)
2(1 -1)
2(1 -1)
2(1 -1)
2(1 -1)
2(1 -1)
2(1 -1)
2(1 -1)
2(1 -1)
2(1 -1)
2(1 -1)
2(1 -1)
2(1 -1)
2(1 -1)
2(1 -1)
2(1 -1)
2(1 -1)
2(1 -1)
2(1 -1)
2(1 -1)
2(1 -1)
2(1 -1)
2(1 -1)
2(1 -1)
2(1 -1)
2(1 -1)
2(1 -1)
2(1 -1)
2(1 -1)
2(1 -1)
2(1 -1)
2(1 -1)
2(1 -1)
2(1 -1)
2(1 -1)
2(1 -1)
2(1 -1)
2(1 -1)
2(1 -1)
2(1 -1)
2(1 -1)
2(1 -1)
2(1 -1)
2(1 -1)
2(1 -1)
2(1 -1)
2(1 -1)
2(1 -1)
2(1 -1)
2(1 -1)
2(1 -1)
2(1 -1)
2(1 -1)
2(1 -1)
2(1 -1)
2(1 -1)
2(1 -1)
2(1 -1)
2(1 -1)
2(1 -1)
2(1 -1)
2(1 -1)
2(1 -1)
2(1 -1)
2(1 -1)
2(1 -1)
2(1 -1)
2(1 -1)
2(1 -1)
2(1 -1)
2(1 -1)
2(1 -1)
2(1 -1)
2(1 -1)
2(1 -1)
2(1 -1)
2(1 -1)
2(1 -1)
2(1 -1)
2(1 -1)
2(1 -1)
2(1 -1)
2(1 -1)
2(1 -1)
2(1 -1)
2(1 -1)
2(1 -1)
2(1 -1)
2(1 -1)
2(1 -1)
2(1 -1)
2(1 -1)
2(1 -1)
2(1 -1)
2(1 -1)
2(1 -1)
2(1 -1)
2(1 -1)
2(1 -1)
2(1 -1)
2(1 -1)
2(1 -1)
2(1 -1)
2(1 -1)
2(1 -1)
2(1 -1)
2(1 -1)
2(1 -1)
2(1 -1)
2(1 -1)
2(1 -1)
2(1 -1)
2(1 -1)
2(1 -1)
2(1 -1)
2(1 -1)
2(1 -1)
2(1 -1)
2(1 -1)
2(1 -1)
2(1 -1)
2(1 -1)
2(1 -1)
2(1 -1)
2(1 -1)
2(1 -1)
2(1 -1)
2(1 -1)
2(1 -1)
2(1 -1)
2(1 -1)
2(1 -1)
2(1 -1)
2(1 -1)
2(1 -1)
2(1 -1)
2(1 -1)
2(1 -1)
2(1 -1)
2(1 -1)
2(1 -1)
2(1 -1)
2(1 -1)
2(1 -1)
2(1 -1)
2(1 -1)
2(1 -1)
2(1 -1)
2(1 -1)
2(1 -1)
2(1 -1)
2(1 -1)
2(1 -1)
2(1 -1)
2(1 -1)
2(1 -1)
2(1 -1)
2(1 -1)
2(1 -1)
2(1 -1)
2(1 -1)
2(1 -1)
2(1 -1)
2(1 -1)
2(1 -1)
2(1 -1)
2(1 -1)
2(1 -1)
2(1 -1)
2(1 -1)
2(1 -1)
2(1 -1)
2(1 -1)
2(1 -1)
2(1 -1)
2(1 -1)
2(1 -1)
2(1 -1)
2(1 -1)
2(1 -1)
2(1 -1)
2(1 -1)
2(1 -1)
2(1 -1)
2(1 -1)
2(1 -1)
2(1 -1)
2(1 -1)
2(1 -1)
2(1 -1)
2(1 -1)
2(1 -1)
2(1 -1)
2(1 -1)
2(1 -1)
2(1 -1)
2(1 -1)
2(1 -1)
2(1 -1)
2(1 -1)
2(1 -1)
2(1 -1)
2(1 -1)
2(1 -1)
2(1 -1)
2(1 -1)
2(1 -1)
2(1 -1)
2(1 -1)
2(1 -1)
2(1 -1)
2(1 -1)
2(1 -1)
2(1 -1)
2(1 -1)
2(1 -1)
2(1 -1)
2(1 -1)
2(1 -1)
2(1 -1)
2(1 -1)
2(1 -1)
2(1 -1)
2(1 -1)
2(1 -1)
2(1 -1)
2(1 -1)
2(1 -1)
2(1 -1)
2(1 -1)
2(1 -1)
2(1 -1)
2(1 -1)
2(1 -1)
2(1 -1)
2(1 -1)
2(1 -1)
2(1 -1)
2(1 -1)
2(1 -1)
2(1 -1)
2(1 -1)
4(1 -1 -1 1)
4(1 -1 1 -1)
4(1 -1 1 -1)
4(1 -1 1 -1)
4(1 -1 -1 1)
4(1 -1 1 -1)
4(1 -1 1 -1)
4(1 -1 1 -1)
)

// edgeNormals

577
(
2(24 25)
2(24 26)
2(27 28)
2(27 29)
2(30 31)
2(32 33)
2(34 35)
2(36 37)
2(38 39)
2(40 41)
2(42 43)
2(44 45)
2(46 47)
2(48 29)
2(49 50)
2(51 52)
2(53 54)
2(55 56)
2(47 57)
2(33 41)
2(58 59)
2(60 61)
2(62 63)
2(64 65)
2(66 67)
2(68 69)
2(70 71)
2(72 73)
2(74 75)
2(76 77)
2(78 79)
2(80 81)
2(82 83)
2(84 85)
2(86 87)
2(88 89)
2(90 91)
2(92 93)
2(94 95)
2(96 97)
2(98 99)
2(100 101)
2(102 103)
2(104 105)
2(106 107)
2(108 109)
2(110 111)
2(112 113)
2(114 115)
2(116 117)
2(118 119)
2(120 121)
2(122 123)
2(124 125)
2(126 127)
2(128 129)
2(130 131)
2(132 133)
2(132 134)
2(135 136)
2(135 137)
2(138 139)
2(140 141)
2(140 142)
2(133 134)
2(143 137)
2(144 145)
2(146 147)
2(148 149)
2(147 139)
2(141 142)
2(150 151)
2(150 152)
2(153 154)
2(155 156)
2(155 157)
2(158 159)
2(151 152)
2(156 157)
2(160 161)
2(162 163)
2(164 165)
2(166 167)
2(168 169)
2(170 171)
2(172 173)
2(174 175)
2(176 177)
2(178 179)
2(180 181)
2(182 183)
2(184 185)
2(184 186)
2(0 6)
2(185 186)
2(187 188)
2(187 189)
2(190 189)
2(191 11)
2(1 10)
2(192 193)
2(194 195)
2(8 5)
2(196 197)
2(198 199)
2(200 201)
2(202 203)
2(204 205)
2(206 207)
2(208 209)
2(210 211)
2(212 213)
2(214 215)
2(216 217)
2(218 219)
2(220 221)
2(220 222)
2(12 18)
2(221 222)
2(223 224)
2(223 225)
2(226 225)
2(227 23)
2(13 22)
2(228 229)
2(230 231)
2(20 17)
2(232 233)
2(234 235)
2(236 237)
2(238 239)
2(240 241)
2(242 243)
2(244 245)
2(246 247)
2(248 249)
2(250 251)
2(252 253)
2(254 255)
2(256 257)
2(258 259)
2(260 261)
2(262 263)
2(264 265)
2(264 266)
2(267 268)
2(267 269)
2(270 271)
2(270 272)
2(273 274)
2(275 266)
2(268 269)
2(276 277)
2(278 279)
2(280 281)
2(271 272)
2(279 274)
2(282 283)
2(282 284)
2(285 286)
2(287 288)
2(287 289)
2(290 291)
2(283 284)
2(288 289)
2(292 293)
2(294 295)
2(296 297)
2(298 299)
2(300 301)
2(302 303)
2(304 305)
2(306 307)
2(308 309)
2(310 311)
2(312 313)
2(314 315)
2(316 317)
2(318 319)
2(320 321)
2(322 323)
2(324 325)
2(324 326)
2(327 328)
2(327 329)
2(330 331)
2(330 332)
2(333 334)
2(335 326)
2(328 329)
2(336 337)
2(338 339)
2(340 341)
2(331 332)
2(339 334)
2(342 343)
2(342 344)
2(345 346)
2(347 348)
2(347 349)
2(350 351)
2(343 344)
2(348 349)
2(352 353)
2(354 355)
2(356 357)
2(358 359)
2(360 361)
2(362 363)
2(364 365)
2(366 367)
2(368 369)
2(370 371)
2(372 373)
2(374 375)
2(376 377)
2(378 379)
2(380 381)
2(382 383)
2(384 385)
2(384 386)
2(387 388)
2(387 389)
2(390 391)
2(390 392)
2(393 394)
2(395 386)
2(388 389)
2(396 397)
2(398 399)
2(400 401)
2(391 392)
2(399 394)
2(402 403)
2(402 404)
2(405 406)
2(407 408)
2(407 409)
2(410 411)
2(403 404)
2(408 409)
2(412 413)
2(414 415)
2(416 417)
2(418 419)
2(420 421)
2(422 423)
2(424 425)
2(426 427)
2(428 429)
2(430 431)
2(432 433)
2(434 435)
2(436 437)
2(438 439)
2(440 441)
2(442 443)
2(444 445)
2(444 446)
2(447 448)
2(447 449)
2(450 451)
2(450 452)
2(453 454)
2(455 446)
2(448 449)
2(456 457)
2(458 459)
2(460 461)
2(451 452)
2(459 454)
2(462 463)
2(462 464)