/*--------------------------------*- C++ -*----------------------------------*\
| =========                 |                                                 |
| \\      /  F ield         | OpenFOAM: The Open Source CFD Toolbox           |
|  \\    /   O peration     | Version:  2506                                  |
|   \\  /    A nd           | Website:  www.openfoam.com                      |
|    \\/     M anipulation  |                                                 |
\*---------------------------------------------------------------------------*/
FoamFile
{
    version     2.0;
    format      ascii;
    arch        "LSB;label=32;scalar=64";
    class       extendedFeatureEdgeMesh;
    location    "constant/extendedFeatureEdgeMesh";
    object      room.extendedFeatureEdgeMesh;
}
// * * * * * * * * * * * * * * * * * * * * * * * * * * * * * * * * * * * * * //

// points

76
(
(2 2 1.4)
(2 -2 1.4)
(2 2 -1.4)
(2 -2 -1.4)
(-2 2 1.4)
(-2 -2 1.4)
(-2 -2 -1.4)
(-2 2 -1.4)
(-0.5 2 -1.4)
(0.5 2 -1.4)
(0.7 -0.4 -0.674999)
(0.7 0.4 -0.724999)
(0.7 0.4 -0.674999)
(0.7 -0.4 -0.724999)
(-0.7 0.4 -0.674999)
(-0.7 -0.4 -0.674999)
(-0.7 -0.4 -0.724999)
(-0.7 0.4 -0.724999)
(1.9 1.9 -1.3)
(1.9 1.9 1.3)
(1.9 -1.9 1.3)
(1.9 -1.9 -1.3)
(-1.9 -1.9 1.3)
(-1.9 1.9 1.3)
(-1.9 1.9 -1.3)
(-1.9 -1.9 -1.3)
(2 0.9 -0.5)
(2 0.9 0.7)
(2 -0.9 0.7)
(2 -0.9 -0.5)
(0.5 1.8 -1.4)
(-0.5 1.8 -1.4)
(0.5 2 0.599999)
(-0.5 2 0.599999)
(1.9 0.9 -0.5)
(1.9 -0.9 -0.5)
(1.9 0.9 0.7)
(1.9 -0.9 0.7)
(-0.625 0.275 -1.3)
(-0.575 -0.275 -1.3)
(-0.575 0.275 -1.3)
(-0.625 -0.275 -1.3)
(-0.5 1.8 -1.3)
(-0.5 1.9 -1.3)
(-0.625 0.325 -1.3)
(-0.575 0.325 -1.3)
(0.575 0.275 -1.3)
(0.625 -0.275 -1.3)
(0.625 0.275 -1.3)
(0.575 -0.275 -1.3)
(0.625 0.325 -1.3)
(0.5 1.8 -1.3)
(0.575 0.325 -1.3)
(0.5 1.9 -1.3)
(0.625 -0.325 -1.3)
(0.575 -0.325 -1.3)
(-0.575 -0.325 -1.3)
(-0.625 -0.325 -1.3)
(-0.5 1.9 0.599999)
(0.5 1.9 0.599999)
(-0.625 -0.275 -0.724999)
(-0.575 0.275 -0.724999)
(-0.575 -0.275 -0.724999)
(-0.625 0.275 -0.724999)
(0.575 -0.275 -0.724999)
(0.625 0.275 -0.724999)
(0.625 -0.275 -0.724999)
(0.575 0.275 -0.724999)
(0.625 -0.325 -0.724999)
(0.575 -0.325 -0.724999)
(-0.575 -0.325 -0.724999)
(-0.625 -0.325 -0.724999)
(0.625 0.325 -0.724999)
(0.575 0.325 -0.724999)
(-0.575 0.325 -0.724999)
(-0.625 0.325 -0.724999)
)

// edges

114
(
(27 26)
(28 27)
(29 28)
(0 1)
(2 0)
(26 29)
(3 2)
(1 3)
(0 4)
(4 5)
(5 1)
(31 30)
(3 6)
(6 7)
(7 8)
(8 31)
(9 2)
(30 9)
(4 7)
(6 5)
(9 32)
(32 33)
(33 8)
(35 34)
(34 36)
(36 37)
(37 35)
(42 43)
(53 51)
(51 42)
(43 58)
(58 59)
(59 53)
(12 10)
(11 12)
(13 11)
(10 13)
(12 14)
(14 15)
(15 10)
(13 16)
(16 17)
(17 11)
(14 17)
(16 15)
(50 72)
(65 48)
(73 52)
(46 67)
(45 74)
(61 40)
(75 44)
(38 63)
(47 66)
(68 54)
(64 49)
(55 69)
(39 62)
(70 56)
(60 41)
(57 71)
(19 18)
(21 20)
(18 21)
(20 19)
(20 22)
(22 23)
(23 19)
(40 38)
(41 39)
(43 24)
(44 45)
(38 44)
(24 25)
(48 46)
(49 47)
(50 48)
(46 52)
(52 50)
(18 53)
(47 54)
(54 55)
(45 40)
(55 49)
(39 56)
(56 57)
(25 21)
(57 41)
(24 23)
(22 25)
(28 37)
(36 27)
(26 34)
(35 29)
(30 51)
(59 32)
(58 33)
(42 31)
(62 60)
(63 61)
(66 64)
(67 65)
(68 66)
(69 68)
(64 69)
(70 62)
(60 71)
(71 70)
(65 72)
(72 73)
(73 67)
(61 74)
(74 75)
(75 63)
)

// concaveStart mixedStart nonFeatureStart
18 26 76
// internalStart flatStart openStart multipleStart
61 114 114 114
// normals

150
(
(1 0 0)
(0 -1 -0)
(1 0 0)
(0 0 -1)
(1 0 0)
(0 1 -0)
(1 -0 0)
(-0 0 1)
(1 0 0)
(0 1 -0)
(1 -0 0)
(-0 0 1)
(1 0 0)
(0 0 -1)
(1 0 0)
(0 -1 -0)
(0 1 0)
(0 0 1)
(-1 -0 0)
(0 -1 0)
(0 0 -1)
(0 1 0)
(0 0 -1)
(0 0 -1)
(-1 0 0)
(0 0 -1)
(0 1 0)
(1 0 0)
(-0 0 -1)
(0 1 0)
(-1 0 0)
(0 1 0)
(-1 0 0)
(0 1 -0)
(-0 0 -1)
(1 0 0)
(-1 0 0)
(0 0 1)
(-1 0 0)
(0 -1 0)
(-1 0 0)
(-0 0 -1)
(-1 0 0)
(0 1 0)
(-0 0 1)
(1 0 0)
(0 0 1)
(-1 -0 0)
(0 0 1)
(0 1 -0)
(0 -1 -0)
(1 0 0)
(0 -1 0)
(0 0 -1)
(0 -1 0)
(-1 -0 0)
(1 -0 0)
(-0 0 1)
(0 1 -0)
(1 0 0)
(0 0 -1)
(0 -1 -0)
(0 0 1)
(-1 -0 0)
(0 -1 0)
(0 0 -1)
(0 0 -1)
(-1 0 0)
(0 0 -1)
(0 1 0)
(1 -0 0)
(0 1 -0)
(1 0 0)
(0 -1 -0)
(-1 0 0)
(0 1 0)
(-1 -0 0)
(0 -1 0)
(1 -0 0)
(0 1 -0)
(1 0 0)
(0 -1 -0)
(-1 0 0)
(0 1 0)
(-1 -0 0)
(0 -1 0)
(1 -0 0)
(0 1 -0)
(1 0 0)
(0 -1 -0)
(-1 0 0)
(0 1 0)
(-1 -0 0)
(0 -1 0)
(1 -0 0)
(0 1 -0)
(1 0 0)
(0 -1 -0)
(-1 0 0)
(0 1 0)
(-1 -0 0)
(0 -1 0)
(-1 0 0)
(0 -1 0)
(-1 0 0)
(0 1 -0)
(-1 0 0)
(0 0 1)
(-1 0 0)
(0 0 -1)
(-0 0 -1)
(1 -0 0)
(0 -1 0)
(-0 0 1)
(0 0 1)
(0 0 1)
(0 0 1)
(0 0 1)
(1 0 0)
(-0 0 1)
(0 0 1)
(0 0 1)
(0 0 1)
(0 0 1)
(-0 0 1)
(-0 0 1)
(0 0 1)
(0 0 1)
(0 0 1)
(0 0 1)
(0 0 1)
(0 1 0)
(0 0 1)
(0 -1 0)
(0 0 -1)
(-0 0 -1)
(0 0 -1)
(-0 0 -1)
(0 0 -1)
(0 0 -1)
(0 0 -1)
(0 0 -1)
(0 0 -1)
(-0 0 -1)
(0 0 -1)
(0 0 -1)
(0 0 -1)
(0 0 -1)
(0 0 -1)
(0 0 -1)
)

// normal volume types

150
(
0
0
0
0
0
0
0
0
0
0
0
0
0
0
0
0
0
0
0
0
0
0
0
0
0
0
0
0
0
0
0
0
0
0
0
0
0
0
0
0
0
0
0
0
0
0
0
0
0
0
0
0
0
0
0
0
0
0
0
0
0
0
0
0
0
0
0
0
0
0
0
0
0
0
0
0
0
0
0
0
0
0
0
0
0
0
0
0
0
0
0
0
0
0
0
0
0
0
0
0
0
0
0
0
0
0
0
0
0
0
0
0
0
0
0
0
0
0
0
0
0
0
0
0
0
0
0
0
0
0
0
0
0
0
0
0
0
0
0
0
0
0
0
0
0
0
0
0
0
0
)

// normalDirections

114
(
2(1 -1)
2(1 -1)
2(1 -1)
2(1 -1)
2(1 -1)
2(1 -1)
2(1 -1)
2(1 -1)
2(1 -1)
2(1 -1)
2(1 -1)
2(1 -1)
2(1 -1)
2(1 -1)
2(1 -1)
2(1 -1)
2(1 -1)
2(1 -1)
2(1 -1)
2(1 -1)
2(1 -1)
2(1 -1)
2(1 -1)
2(1 -1)
2(1 -1)
2(1 -1)
2(1 -1)
2(1 -1)
2(1 -1)
2(1 -1)
2(1 -1)
2(1 -1)
2(1 -1)
2(1 -1)
2(1 -1)
2(1 -1)
2(1 -1)
2(1 -1)
2(1 -1)
2(1 -1)
2(1 -1)
2(1 -1)
2(1 -1)
2(1 -1)
2(1 -1)
2(1 -1)
2(1 -1)
2(1 -1)
2(1 -1)
2(1 -1)
2(1 -1)
2(1 -1)
2(1 -1)
2(1 -1)
2(1 -1)
2(1 -1)
2(1 -1)
2(1 -1)
2(1 -1)
2(1 -1)
2(1 -1)
2(1 -1)
2(1 -1)
2(1 -1)
2(1 -1)
2(1 -1)
2(1 -1)
2(1 -1)
2(1 -1)
2(1 -1)
2(1 -1)
2(1 -1)
2(1 -1)
2(1 -1)
2(1 -1)
2(1 -1)
2(1 -1)
2(1 -1)
2(1 -1)
2(1 -1)
2(1 -1)
2(1 -1)
2(1 -1)
2(1 -1)
2(1 -1)
2(1 -1)
2(1 -1)
2(1 -1)
2(1 -1)
2(1 -1)
2(1 -1)
2(1 -1)
2(1 -1)
2(1 -1)
2(1 -1)
2(1 -1)
2(1 -1)
2(1 -1)
2(1 -1)
2(1 -1)
2(1 -1)
2(1 -1)
2(1 -1)
2(1 -1)
2(1 -1)
2(1 -1)
2(1 -1)
2(1 -1)
2(1 -1)
2(1 -1)
2(1 -1)
2(1 -1)
2(1 -1)
2(1 -1)
)

// edgeNormals

114
(
2(0 1)
2(2 3)
2(4 5)
2(6 7)
2(8 9)
2(10 11)
2(12 13)
2(14 15)
2(7 16)
2(17 18)
2(17 19)
2(20 21)
2(22 15)
2(23 24)
2(25 26)
2(25 27)
2(28 29)
2(28 30)
2(24 31)
2(18 19)
2(29 32)
2(33 34)
2(26 35)
2(36 37)
2(38 39)
2(40 41)
2(42 43)
2(44 45)
2(46 47)
2(48 49)
2(50 51)
2(52 53)
2(54 55)
2(56 57)
2(56 58)
2(59 60)
2(59 61)
2(57 58)
2(62 63)
2(62 64)
2(65 61)
2(66 67)
2(68 69)
2(67 69)
2(63 64)
2(70 71)
2(72 73)
2(74 75)
2(76 77)
2(78 79)
2(80 81)
2(82 83)
2(84 85)
2(86 87)
2(88 89)
2(90 91)
2(92 93)
2(94 95)
2(96 97)
2(98 99)
2(100 101)
2(102 103)
2(104 105)
2(106 107)
2(108 109)
2(109 105)
2(110 111)
2(110 112)
2(113 81)
2(114 99)
2(44 50)
2(115 83)
2(116 82)
2(117 118)
2(119 73)
2(120 91)
2(121 72)
2(122 74)
2(123 75)
2(46 54)
2(124 88)
2(125 89)
2(126 80)
2(127 90)
2(128 96)
2(129 97)
2(130 131)
2(132 98)
2(111 133)
2(118 131)
2(3 5)
2(41 39)
2(11 1)
2(37 43)
2(47 49)
2(55 53)
2(34 51)
2(45 21)
2(134 95)
2(135 85)
2(136 87)
2(137 77)
2(138 86)
2(139 93)
2(140 92)
2(141 94)
2(142 100)
2(143 101)
2(144 70)
2(145 71)
2(146 76)
2(147 78)
2(148 79)
2(149 84)
)

// featurePointNormals

76
(
3(6 7 9)
3(6 7 15)
3(8 9 13)
3(12 13 15)
3(7 16 18)
3(17 18 19)
3(22 15 24)
3(23 24 26)
3(25 26 27)
3(28 29 30)
3(56 57 61)
3(56 58 60)
3(56 57 58)
3(59 60 61)
3(57 58 63)
3(62 63 64)
3(65 61 67)
3(66 67 69)
3(102 103 107)
3(102 103 109)
3(104 105 109)
3(104 105 107)
3(109 105 111)
3(110 111 112)
3(44 50 118)
3(117 118 131)
3(0 1 11)
3(0 1 3)
3(2 3 5)
3(4 5 11)
3(20 21 30)
3(20 21 27)
3(29 32 34)
3(33 34 35)
3(36 37 39)
3(36 37 43)
3(38 39 41)
3(40 41 43)
3(84 85 113)
3(94 95 114)
3(80 81 113)
3(98 99 114)
3(44 45 49)
3(44 45 50)
3(82 83 115)
3(78 79 115)
3(76 77 119)
3(86 87 120)
3(72 73 119)
3(90 91 120)
3(70 71 121)
3(46 47 49)
3(74 75 122)
3(46 47 54)
3(88 89 124)
3(92 93 125)
3(96 97 128)
3(100 101 129)
3(50 51 53)
3(52 53 55)
3(98 99 134)
3(80 81 135)
3(94 95 134)
3(84 85 135)
3(90 91 136)
3(72 73 137)
3(86 87 136)
3(76 77 137)
3(88 89 138)
3(92 93 139)
3(96 97 141)
3(100 101 142)
3(70 71 144)
3(74 75 145)
3(78 79 147)
3(82 83 148)
)

// featurePointEdges

76
(
3(3 8 4)
3(3 10 7)
3(6 16 4)
3(7 12 6)
3(9 18 8)
3(9 19 10)
3(13 19 12)
3(14 18 13)
3(14 22 15)
3(16 20 17)
3(36 39 33)
3(35 42 34)
3(33 37 34)
3(35 40 36)
3(38 43 37)
3(38 44 39)
3(41 44 40)
3(42 43 41)
3(63 79 61)
3(64 67 61)
3(64 65 62)
3(63 86 62)
3(66 89 65)
3(66 88 67)
3(73 88 70)
3(86 89 73)
3(5 92 0)
3(1 91 0)
3(2 90 1)
3(5 93 2)
3(11 94 17)
3(15 97 11)
3(20 95 21)
3(22 96 21)
3(23 92 24)
3(26 93 23)
3(25 91 24)
3(26 90 25)
3(72 52 68)
3(69 57 84)
3(82 50 68)
3(87 59 69)
3(29 97 27)
3(70 30 27)
3(72 51 71)
3(82 49 71)
3(77 48 74)
3(75 53 80)
3(76 46 74)
3(83 55 75)
3(78 45 76)
3(29 94 28)
3(78 47 77)
3(79 32 28)
3(81 54 80)
3(83 56 81)
3(85 58 84)
3(87 60 85)
3(30 96 31)
3(32 95 31)
3(106 59 98)
3(99 50 111)
3(105 57 98)
3(113 52 99)
3(104 55 100)
3(101 46 108)
3(102 53 100)
3(110 48 101)
3(103 54 102)
3(104 56 103)
3(107 58 105)
3(107 60 106)
3(109 45 108)
3(110 47 109)
3(112 49 111)
3(113 51 112)
)

// regionEdges
0()


// ************************************************************************* //
